LTspice 24.1.9 for Windows
Circuit: C:\Users\ACER\Desktop\AIC_SIMULATIONS\EXP7\WEINBRIDGE_OSCILLATOR.net
Start Time: Wed Sep 24 02:44:46 2025
solver = Normal
Maximum thread count: 4
tnom = 27
temp = 27
method = trap
.OP point found by inspection.
Total elapsed time: 0.053 seconds.

Files loaded:
C:\Users\ACER\Desktop\AIC_SIMULATIONS\EXP7\WEINBRIDGE_OSCILLATOR.net
C:\Users\ACER\AppData\Local\LTspice\lib\sub\opamp.sub

