LTspice 24.0.12 for Windows
Circuit: * E:\Downloads\AIC-SIMULATIONS\EXP7\WEINBRIDGE_OSCILLATOR.asc
Start Time: Wed Sep 24 20:56:35 2025
solver = Normal
Maximum thread count: 8
tnom = 27
temp = 27
method = modified trap
Direct Newton iteration for .op point succeeded.
Total elapsed time: 0.406 seconds.

