<<<<<<< HEAD
LTspice 24.0.12 for Windows
Circuit: * E:\Downloads\AIC-SIMULATIONS\EXP7\WEINBRIDGE_OSCILLATOR.asc
Start Time: Wed Sep 24 20:56:35 2025
=======
LTspice 24.1.9 for Windows
Circuit: C:\Users\ACER\Desktop\AIC_SIMULATIONS\EXP7\WEINBRIDGE_OSCILLATOR.net
Start Time: Wed Sep 24 02:44:46 2025
>>>>>>> b60735b31641daf74ce13ce17b2508c40e021831
solver = Normal
Maximum thread count: 4
tnom = 27
temp = 27
<<<<<<< HEAD
method = modified trap
Direct Newton iteration for .op point succeeded.
Total elapsed time: 0.406 seconds.
=======
method = trap
.OP point found by inspection.
Total elapsed time: 0.053 seconds.

Files loaded:
C:\Users\ACER\Desktop\AIC_SIMULATIONS\EXP7\WEINBRIDGE_OSCILLATOR.net
C:\Users\ACER\AppData\Local\LTspice\lib\sub\opamp.sub
>>>>>>> b60735b31641daf74ce13ce17b2508c40e021831

