LTspice 24.0.12 for Windows
Circuit: * E:\Downloads\AIC-SIMULATIONS\Draft3.asc
Start Time: Tue Sep 23 23:22:55 2025
solver = Normal
Maximum thread count: 8
tnom = 27
temp = 27
method = modified trap
.OP point found by inspection.
Ignoring empty pin current: Ix(u1:1)
Ignoring empty pin current: Ix(u1:2)
Ignoring empty pin current: Ix(u1:1)
Ignoring empty pin current: Ix(u1:2)
Total elapsed time: 0.219 seconds.

