LTspice 24.0.12 for Windows
Circuit: * E:\Downloads\AIC-SIMULATIONS\EXP1.asc
Start Time: Tue Sep 23 23:16:49 2025
solver = Normal
Maximum thread count: 8
tnom = 27
temp = 27
method = modified trap
.OP point found by inspection.
Ignoring empty pin current: Ix(u1:1)
Ignoring empty pin current: Ix(u1:2)
Ignoring empty pin current: Ix(u1:1)
Ignoring empty pin current: Ix(u1:2)
Total elapsed time: 0.841 seconds.

