LTspice 24.0.12 for Windows
Circuit: * E:\Downloads\AIC-SIMULATIONS\EXP4\SCHMIT TRIGGER.asc
Start Time: Wed Sep 24 00:12:43 2025
solver = Normal
Maximum thread count: 8
tnom = 27
temp = 27
method = modified trap
.OP point found by inspection.
Ignoring empty pin current: Ix(u1:1)
Ignoring empty pin current: Ix(u1:2)
Ignoring empty pin current: Ix(u1:1)
Ignoring empty pin current: Ix(u1:2)
Heightened Def Con from 5.70425e-05 to 0.01
Total elapsed time: 0.206 seconds.

