LTspice 24.0.12 for Windows
Circuit: * E:\Downloads\AIC-SIMULATIONS\EXP3\COMPARITOR.asc
Start Time: Wed Sep 24 00:08:35 2025
solver = Normal
Maximum thread count: 8
tnom = 27
temp = 27
method = modified trap
WARNING: Node N004 is floating.

Direct Newton iteration for .op point succeeded.
Ignoring empty pin current: Ix(u1:1)
Ignoring empty pin current: Ix(u1:2)
Ignoring empty pin current: Ix(u1:1)
Ignoring empty pin current: Ix(u1:2)
Total elapsed time: 0.068 seconds.

